$# File created at Mon Apr 27 16:14:41 2015
*KEYWORD
*MAT_PIECEWISE_LINEAR_PLASTICITY_TITLE
$#Stuff goes here
$#Stuff goes here
$#Stuff goes here
$#Stuff goes here
$#Stuff goes here
	1	1
	2	2
	3	3
	4	4
