$# LS-DYNA Keyword File created by at Mon Apr 27 20:11:19 2015
*KEYWORD
*MAT_PIECEWISE_LINEAR_PLASTICITY_TITLE
$#	mid	ro	eee	pr	sigy	etan	fail	tdel
								
$#	c	p	lcss	lcsr	vp	lcf
						
$#	eps1	eps2	eps3	eps4	eps5	eps6	eps7	eps8
								
$#	es1	es2	eps3	es4	es5	es6	es7	es8
								
*DEFINE_CURVE
$#	lcid	sidr	sfa	sfo	offa	offo	dattyp
							
$#		a1		o1
