$# LS-DYNA Keyword File created byAdam  at Mon Apr 27 23:29:32 2015
*KEYWORD
*MAT_PIECEWISE_LINEAR_PLASTICITY_TITLE
$#	mid	ro	eee	pr	sigy	etan	fail	tdel
	4.0	0.0	30.0	0.0	0.657	2.0	1.0e+21	0.0
$#	c	p	lcss	lcsr	vp	lcf
	0.0	0.0	0.0	0.0	0.0	0.0
$#	eps1	eps2	eps3	eps4	eps5	eps6	eps7	eps8
	0.0	0.0	0.0	0.0	0.0	0.0	0.0	0.0
$#	es1	es2	eps3	es4	es5	es6	es7	es8
	0.0	0.0	0.0	0.0	0.0	0.0	0.0	0.0
*DEFINE_CURVE
$#	lcid	sidr	sfa	sfo	offa	offo	dattyp
	0.0	0.0	0.0	0.0	0.0	0.0	0.0
$#		a1		o1
	0.0	0.0
	0.0002	378.15479999999997
	0.0012	584.6292
	0.0027	683.4764
	0.0044	746.8272
	0.0061	794.87
	0.0079	831.3580000000001
	0.0098	858.6551999999999
	0.0116	885.7488
	0.0135	906.4272
	0.0153	923.3040000000001
	0.0172	938.8092
	0.0191	953.7536
	0.021	965.6712000000001
	0.0229	976.7028
	0.0248	985.607
	0.0267	995.0544000000001
	0.0286	1001.2221999999999
	0.0305	1009.0640000000001
	0.0324	1016.3058000000001
$ ... 481 like lines cut
*END
